<?xml version="1.0" encoding="UTF-8"?>

<!-- generated on 2025-01-13 19:40:04 by Eclipse SUMO jtrrouter Version 1.21.0
<jtrrouterConfiguration xmlns:xsi="http://www.w3.org/2001/XMLSchema-instance" xsi:noNamespaceSchemaLocation="http://sumo.dlr.de/xsd/jtrrouterConfiguration.xsd">

    <input>
        <net-file value="/home/wmn/TrafficAlpha/VLM-TSC/map/./single_junction.net.xml"/>
        <route-files value="/home/wmn/TrafficAlpha/VLM-TSC/map/./testflow.trip.xml"/>
        <turn-ratio-files value="/home/wmn/TrafficAlpha/VLM-TSC/map/./testflow.turndefs.xml"/>
    </input>

    <output>
        <output-file value="/home/wmn/TrafficAlpha/VLM-TSC/map/./testflow.rou.xml"/>
    </output>

    <processing>
        <randomize-flows value="True"/>
        <accept-all-destinations value="True"/>
    </processing>

    <defaults>
        <departlane value="random"/>
    </defaults>

    <report>
        <no-warnings value="true"/>
    </report>

    <random_number>
        <seed value="777"/>
    </random_number>

</jtrrouterConfiguration>
-->

<routes xmlns:xsi="http://www.w3.org/2001/XMLSchema-instance" xsi:noNamespaceSchemaLocation="http://sumo.dlr.de/xsd/routes_file.xsd">
    <vType id="police" length="5.00" color="yellow" tau="1.0"/>
    <vehicle id="gsndj_s4__0__police.0" type="police" depart="0.84" departLane="random">
        <route edges="gsndj_s4 161701303#10"/>
    </vehicle>
    <vehicle id="gsndj_n7__0__police.0" type="police" depart="3.58" departLane="random">
        <route edges="gsndj_n7 161701303#10"/>
    </vehicle>
    <vehicle id="gsndj_s4__0__police.1" type="police" depart="4.16" departLane="random">
        <route edges="gsndj_s4 gsndj_s5"/>
    </vehicle>
    <vehicle id="29257863#2__0__police.0" type="police" depart="5.68" departLane="random">
        <route edges="29257863#2 29257863#5"/>
    </vehicle>
    <vehicle id="161701303#7.248__0__police.0" type="police" depart="5.99" departLane="random">
        <route edges="161701303#7.248 161701303#10"/>
    </vehicle>
    <vehicle id="29257863#2__0__police.1" type="police" depart="6.54" departLane="random">
        <route edges="29257863#2 gsndj_s5"/>
    </vehicle>
    <vehicle id="29257863#2__0__police.2" type="police" depart="6.80" departLane="random">
        <route edges="29257863#2 gsndj_s5"/>
    </vehicle>
    <vehicle id="29257863#2__0__police.3" type="police" depart="7.71" departLane="random">
        <route edges="29257863#2 gsndj_s5"/>
    </vehicle>
    <vehicle id="161701303#7.248__0__police.1" type="police" depart="7.95" departLane="random">
        <route edges="161701303#7.248 161701303#10"/>
    </vehicle>
    <vehicle id="29257863#2__0__police.4" type="police" depart="10.82" departLane="random">
        <route edges="29257863#2 29257863#5"/>
    </vehicle>
    <vehicle id="gsndj_n7__0__police.1" type="police" depart="10.88" departLane="random">
        <route edges="gsndj_n7 29257863#5"/>
    </vehicle>
    <vehicle id="gsndj_n7__0__police.2" type="police" depart="11.03" departLane="random">
        <route edges="gsndj_n7 161701303#10"/>
    </vehicle>
    <vehicle id="29257863#2__0__police.5" type="police" depart="12.32" departLane="random">
        <route edges="29257863#2 gsndj_s5"/>
    </vehicle>
    <vehicle id="29257863#2__0__police.6" type="police" depart="15.68" departLane="random">
        <route edges="29257863#2 gsndj_s5"/>
    </vehicle>
    <vehicle id="gsndj_n7__0__police.3" type="police" depart="15.93" departLane="random">
        <route edges="gsndj_n7 gsndj_n6"/>
    </vehicle>
    <vehicle id="gsndj_s4__0__police.2" type="police" depart="16.75" departLane="random">
        <route edges="gsndj_s4 gsndj_s5"/>
    </vehicle>
    <vehicle id="gsndj_n7__0__police.4" type="police" depart="17.37" departLane="random">
        <route edges="gsndj_n7 gsndj_n6"/>
    </vehicle>
    <vehicle id="29257863#2__0__police.7" type="police" depart="19.28" departLane="random">
        <route edges="29257863#2 gsndj_s5"/>
    </vehicle>
    <vehicle id="29257863#2__0__police.8" type="police" depart="20.32" departLane="random">
        <route edges="29257863#2 29257863#5"/>
    </vehicle>
    <vehicle id="gsndj_s4__0__police.3" type="police" depart="23.35" departLane="random">
        <route edges="gsndj_s4 gsndj_s5"/>
    </vehicle>
    <vehicle id="161701303#7.248__0__police.2" type="police" depart="25.22" departLane="random">
        <route edges="161701303#7.248 161701303#10"/>
    </vehicle>
    <vehicle id="gsndj_n7__0__police.5" type="police" depart="25.90" departLane="random">
        <route edges="gsndj_n7 29257863#5"/>
    </vehicle>
    <vehicle id="gsndj_n7__0__police.6" type="police" depart="26.70" departLane="random">
        <route edges="gsndj_n7 29257863#5"/>
    </vehicle>
    <vehicle id="29257863#2__0__police.9" type="police" depart="26.95" departLane="random">
        <route edges="29257863#2 29257863#5"/>
    </vehicle>
    <vehicle id="161701303#7.248__0__police.3" type="police" depart="28.29" departLane="random">
        <route edges="161701303#7.248 gsndj_n6"/>
    </vehicle>
    <vehicle id="gsndj_n7__0__police.7" type="police" depart="28.79" departLane="random">
        <route edges="gsndj_n7 gsndj_n6"/>
    </vehicle>
    <vehicle id="161701303#7.248__0__police.4" type="police" depart="33.66" departLane="random">
        <route edges="161701303#7.248 161701303#10"/>
    </vehicle>
    <vehicle id="29257863#2__0__police.10" type="police" depart="35.91" departLane="random">
        <route edges="29257863#2 29257863#5"/>
    </vehicle>
    <vehicle id="gsndj_n7__0__police.8" type="police" depart="36.79" departLane="random">
        <route edges="gsndj_n7 gsndj_n6"/>
    </vehicle>
    <vehicle id="gsndj_n7__0__police.9" type="police" depart="40.54" departLane="random">
        <route edges="gsndj_n7 gsndj_n6"/>
    </vehicle>
    <vehicle id="gsndj_n7__0__police.10" type="police" depart="40.85" departLane="random">
        <route edges="gsndj_n7 gsndj_n6"/>
    </vehicle>
    <vehicle id="29257863#2__0__police.11" type="police" depart="41.30" departLane="random">
        <route edges="29257863#2 gsndj_n6"/>
    </vehicle>
    <vehicle id="161701303#7.248__0__police.5" type="police" depart="43.19" departLane="random">
        <route edges="161701303#7.248 161701303#10"/>
    </vehicle>
    <vehicle id="gsndj_n7__0__police.11" type="police" depart="44.46" departLane="random">
        <route edges="gsndj_n7 gsndj_n6"/>
    </vehicle>
    <vehicle id="29257863#2__0__police.12" type="police" depart="46.02" departLane="random">
        <route edges="29257863#2 29257863#5"/>
    </vehicle>
    <vehicle id="gsndj_s4__0__police.4" type="police" depart="46.02" departLane="random">
        <route edges="gsndj_s4 gsndj_s5"/>
    </vehicle>
    <vehicle id="gsndj_n7__0__police.12" type="police" depart="47.92" departLane="random">
        <route edges="gsndj_n7 29257863#5"/>
    </vehicle>
    <vehicle id="161701303#7.248__0__police.6" type="police" depart="48.14" departLane="random">
        <route edges="161701303#7.248 gsndj_n6"/>
    </vehicle>
    <vehicle id="29257863#2__0__police.13" type="police" depart="48.23" departLane="random">
        <route edges="29257863#2 gsndj_s5"/>
    </vehicle>
    <vehicle id="gsndj_s4__0__police.5" type="police" depart="51.52" departLane="random">
        <route edges="gsndj_s4 gsndj_s5"/>
    </vehicle>
    <vehicle id="gsndj_n7__0__police.13" type="police" depart="52.13" departLane="random">
        <route edges="gsndj_n7 gsndj_n6"/>
    </vehicle>
    <vehicle id="gsndj_s4__0__police.6" type="police" depart="53.45" departLane="random">
        <route edges="gsndj_s4 gsndj_s5"/>
    </vehicle>
    <vehicle id="gsndj_n7__0__police.14" type="police" depart="54.94" departLane="random">
        <route edges="gsndj_n7 gsndj_n6"/>
    </vehicle>
    <vehicle id="29257863#2__0__police.14" type="police" depart="56.15" departLane="random">
        <route edges="29257863#2 29257863#5"/>
    </vehicle>
    <vehicle id="gsndj_n7__1__police.0" type="police" depart="60.03" departLane="random">
        <route edges="gsndj_n7 161701303#10"/>
    </vehicle>
    <vehicle id="29257863#2__1__police.0" type="police" depart="61.54" departLane="random">
        <route edges="29257863#2 29257863#5"/>
    </vehicle>
    <vehicle id="gsndj_s4__1__police.0" type="police" depart="61.72" departLane="random">
        <route edges="gsndj_s4 gsndj_s5"/>
    </vehicle>
    <vehicle id="29257863#2__1__police.1" type="police" depart="63.43" departLane="random">
        <route edges="29257863#2 29257863#5"/>
    </vehicle>
    <vehicle id="gsndj_s4__1__police.1" type="police" depart="63.47" departLane="random">
        <route edges="gsndj_s4 gsndj_s5"/>
    </vehicle>
    <vehicle id="gsndj_n7__1__police.1" type="police" depart="64.54" departLane="random">
        <route edges="gsndj_n7 29257863#5"/>
    </vehicle>
    <vehicle id="gsndj_n7__1__police.2" type="police" depart="69.31" departLane="random">
        <route edges="gsndj_n7 161701303#10"/>
    </vehicle>
    <vehicle id="gsndj_s4__1__police.2" type="police" depart="70.17" departLane="random">
        <route edges="gsndj_s4 161701303#10"/>
    </vehicle>
    <vehicle id="gsndj_n7__1__police.3" type="police" depart="71.26" departLane="random">
        <route edges="gsndj_n7 gsndj_n6"/>
    </vehicle>
    <vehicle id="gsndj_s4__1__police.3" type="police" depart="72.29" departLane="random">
        <route edges="gsndj_s4 161701303#10"/>
    </vehicle>
    <vehicle id="29257863#2__1__police.2" type="police" depart="72.41" departLane="random">
        <route edges="29257863#2 29257863#5"/>
    </vehicle>
    <vehicle id="29257863#2__1__police.3" type="police" depart="73.67" departLane="random">
        <route edges="29257863#2 29257863#5"/>
    </vehicle>
    <vehicle id="161701303#7.248__1__police.0" type="police" depart="74.01" departLane="random">
        <route edges="161701303#7.248 gsndj_s5"/>
    </vehicle>
    <vehicle id="gsndj_n7__1__police.4" type="police" depart="75.08" departLane="random">
        <route edges="gsndj_n7 gsndj_n6"/>
    </vehicle>
    <vehicle id="29257863#2__1__police.4" type="police" depart="75.59" departLane="random">
        <route edges="29257863#2 gsndj_s5"/>
    </vehicle>
    <vehicle id="29257863#2__1__police.5" type="police" depart="76.46" departLane="random">
        <route edges="29257863#2 29257863#5"/>
    </vehicle>
    <vehicle id="29257863#2__1__police.6" type="police" depart="76.73" departLane="random">
        <route edges="29257863#2 29257863#5"/>
    </vehicle>
    <vehicle id="29257863#2__1__police.7" type="police" depart="78.84" departLane="random">
        <route edges="29257863#2 29257863#5"/>
    </vehicle>
    <vehicle id="29257863#2__1__police.8" type="police" depart="80.50" departLane="random">
        <route edges="29257863#2 29257863#5"/>
    </vehicle>
    <vehicle id="161701303#7.248__1__police.1" type="police" depart="83.16" departLane="random">
        <route edges="161701303#7.248 gsndj_n6"/>
    </vehicle>
    <vehicle id="161701303#7.248__1__police.2" type="police" depart="85.86" departLane="random">
        <route edges="161701303#7.248 gsndj_n6"/>
    </vehicle>
    <vehicle id="gsndj_n7__1__police.5" type="police" depart="86.23" departLane="random">
        <route edges="gsndj_n7 gsndj_n6"/>
    </vehicle>
    <vehicle id="gsndj_n7__1__police.6" type="police" depart="86.40" departLane="random">
        <route edges="gsndj_n7 gsndj_n6"/>
    </vehicle>
    <vehicle id="gsndj_s4__1__police.4" type="police" depart="87.35" departLane="random">
        <route edges="gsndj_s4 gsndj_s5"/>
    </vehicle>
    <vehicle id="29257863#2__1__police.9" type="police" depart="89.83" departLane="random">
        <route edges="29257863#2 29257863#5"/>
    </vehicle>
    <vehicle id="gsndj_n7__1__police.7" type="police" depart="90.89" departLane="random">
        <route edges="gsndj_n7 gsndj_n6"/>
    </vehicle>
    <vehicle id="gsndj_n7__1__police.8" type="police" depart="91.08" departLane="random">
        <route edges="gsndj_n7 gsndj_n6"/>
    </vehicle>
    <vehicle id="161701303#7.248__1__police.3" type="police" depart="95.70" departLane="random">
        <route edges="161701303#7.248 gsndj_n6"/>
    </vehicle>
    <vehicle id="29257863#2__1__police.10" type="police" depart="97.85" departLane="random">
        <route edges="29257863#2 29257863#5"/>
    </vehicle>
    <vehicle id="gsndj_n7__1__police.9" type="police" depart="99.15" departLane="random">
        <route edges="gsndj_n7 29257863#5"/>
    </vehicle>
    <vehicle id="29257863#2__1__police.11" type="police" depart="102.87" departLane="random">
        <route edges="29257863#2 gsndj_s5"/>
    </vehicle>
    <vehicle id="29257863#2__1__police.12" type="police" depart="103.28" departLane="random">
        <route edges="29257863#2 29257863#5"/>
    </vehicle>
    <vehicle id="gsndj_s4__1__police.5" type="police" depart="104.98" departLane="random">
        <route edges="gsndj_s4 29257863#5"/>
    </vehicle>
    <vehicle id="29257863#2__1__police.13" type="police" depart="105.90" departLane="random">
        <route edges="29257863#2 gsndj_n6"/>
    </vehicle>
    <vehicle id="161701303#7.248__1__police.4" type="police" depart="107.92" departLane="random">
        <route edges="161701303#7.248 gsndj_n6"/>
    </vehicle>
    <vehicle id="gsndj_n7__1__police.10" type="police" depart="109.14" departLane="random">
        <route edges="gsndj_n7 gsndj_n6"/>
    </vehicle>
    <vehicle id="161701303#7.248__1__police.5" type="police" depart="110.44" departLane="random">
        <route edges="161701303#7.248 161701303#10"/>
    </vehicle>
    <vehicle id="gsndj_s4__1__police.6" type="police" depart="110.49" departLane="random">
        <route edges="gsndj_s4 gsndj_s5"/>
    </vehicle>
    <vehicle id="gsndj_n7__1__police.11" type="police" depart="111.42" departLane="random">
        <route edges="gsndj_n7 29257863#5"/>
    </vehicle>
    <vehicle id="161701303#7.248__1__police.6" type="police" depart="112.24" departLane="random">
        <route edges="161701303#7.248 161701303#10"/>
    </vehicle>
    <vehicle id="29257863#2__1__police.14" type="police" depart="113.47" departLane="random">
        <route edges="29257863#2 gsndj_s5"/>
    </vehicle>
    <vehicle id="gsndj_n7__1__police.12" type="police" depart="114.52" departLane="random">
        <route edges="gsndj_n7 gsndj_n6"/>
    </vehicle>
    <vehicle id="gsndj_n7__1__police.13" type="police" depart="117.89" departLane="random">
        <route edges="gsndj_n7 29257863#5"/>
    </vehicle>
    <vehicle id="gsndj_n7__1__police.14" type="police" depart="119.78" departLane="random">
        <route edges="gsndj_n7 gsndj_n6"/>
    </vehicle>
    <vehicle id="gsndj_n7__2__police.0" type="police" depart="120.09" departLane="random">
        <route edges="gsndj_n7 161701303#10"/>
    </vehicle>
    <vehicle id="gsndj_n7__2__police.1" type="police" depart="120.19" departLane="random">
        <route edges="gsndj_n7 gsndj_n6"/>
    </vehicle>
    <vehicle id="gsndj_s4__2__police.0" type="police" depart="120.29" departLane="random">
        <route edges="gsndj_s4 29257863#5"/>
    </vehicle>
    <vehicle id="161701303#7.248__2__police.0" type="police" depart="122.31" departLane="random">
        <route edges="161701303#7.248 gsndj_s5"/>
    </vehicle>
    <vehicle id="gsndj_n7__2__police.2" type="police" depart="124.84" departLane="random">
        <route edges="gsndj_n7 gsndj_n6"/>
    </vehicle>
    <vehicle id="29257863#2__2__police.0" type="police" depart="128.46" departLane="random">
        <route edges="29257863#2 gsndj_s5"/>
    </vehicle>
    <vehicle id="29257863#2__2__police.1" type="police" depart="128.53" departLane="random">
        <route edges="29257863#2 29257863#5"/>
    </vehicle>
    <vehicle id="gsndj_s4__2__police.1" type="police" depart="134.15" departLane="random">
        <route edges="gsndj_s4 161701303#10"/>
    </vehicle>
    <vehicle id="29257863#2__2__police.2" type="police" depart="134.36" departLane="random">
        <route edges="29257863#2 gsndj_s5"/>
    </vehicle>
    <vehicle id="29257863#2__2__police.3" type="police" depart="136.26" departLane="random">
        <route edges="29257863#2 29257863#5"/>
    </vehicle>
    <vehicle id="gsndj_s4__2__police.2" type="police" depart="137.86" departLane="random">
        <route edges="gsndj_s4 gsndj_s5"/>
    </vehicle>
    <vehicle id="29257863#2__2__police.4" type="police" depart="139.56" departLane="random">
        <route edges="29257863#2 gsndj_s5"/>
    </vehicle>
    <vehicle id="gsndj_s4__2__police.3" type="police" depart="144.00" departLane="random">
        <route edges="gsndj_s4 gsndj_s5"/>
    </vehicle>
    <vehicle id="gsndj_n7__2__police.3" type="police" depart="144.69" departLane="random">
        <route edges="gsndj_n7 29257863#5"/>
    </vehicle>
    <vehicle id="gsndj_s4__2__police.4" type="police" depart="145.38" departLane="random">
        <route edges="gsndj_s4 gsndj_s5"/>
    </vehicle>
    <vehicle id="gsndj_n7__2__police.4" type="police" depart="145.80" departLane="random">
        <route edges="gsndj_n7 29257863#5"/>
    </vehicle>
    <vehicle id="29257863#2__2__police.5" type="police" depart="148.54" departLane="random">
        <route edges="29257863#2 29257863#5"/>
    </vehicle>
    <vehicle id="29257863#2__2__police.6" type="police" depart="150.51" departLane="random">
        <route edges="29257863#2 gsndj_s5"/>
    </vehicle>
    <vehicle id="161701303#7.248__2__police.1" type="police" depart="151.41" departLane="random">
        <route edges="161701303#7.248 gsndj_s5"/>
    </vehicle>
    <vehicle id="gsndj_s4__2__police.5" type="police" depart="151.76" departLane="random">
        <route edges="gsndj_s4 gsndj_s5"/>
    </vehicle>
    <vehicle id="gsndj_n7__2__police.5" type="police" depart="151.85" departLane="random">
        <route edges="gsndj_n7 gsndj_n6"/>
    </vehicle>
    <vehicle id="29257863#2__2__police.7" type="police" depart="151.94" departLane="random">
        <route edges="29257863#2 gsndj_s5"/>
    </vehicle>
    <vehicle id="29257863#2__2__police.8" type="police" depart="152.29" departLane="random">
        <route edges="29257863#2 gsndj_s5"/>
    </vehicle>
    <vehicle id="161701303#7.248__2__police.2" type="police" depart="153.35" departLane="random">
        <route edges="161701303#7.248 161701303#10"/>
    </vehicle>
    <vehicle id="161701303#7.248__2__police.3" type="police" depart="153.66" departLane="random">
        <route edges="161701303#7.248 161701303#10"/>
    </vehicle>
    <vehicle id="161701303#7.248__2__police.4" type="police" depart="154.35" departLane="random">
        <route edges="161701303#7.248 161701303#10"/>
    </vehicle>
    <vehicle id="gsndj_s4__2__police.6" type="police" depart="155.15" departLane="random">
        <route edges="gsndj_s4 161701303#10"/>
    </vehicle>
    <vehicle id="29257863#2__2__police.9" type="police" depart="157.85" departLane="random">
        <route edges="29257863#2 gsndj_s5"/>
    </vehicle>
    <vehicle id="gsndj_n7__2__police.6" type="police" depart="159.52" departLane="random">
        <route edges="gsndj_n7 161701303#10"/>
    </vehicle>
    <vehicle id="29257863#2__2__police.10" type="police" depart="159.82" departLane="random">
        <route edges="29257863#2 29257863#5"/>
    </vehicle>
    <vehicle id="gsndj_n7__2__police.7" type="police" depart="162.11" departLane="random">
        <route edges="gsndj_n7 161701303#10"/>
    </vehicle>
    <vehicle id="gsndj_n7__2__police.8" type="police" depart="162.53" departLane="random">
        <route edges="gsndj_n7 gsndj_n6"/>
    </vehicle>
    <vehicle id="161701303#7.248__2__police.5" type="police" depart="162.62" departLane="random">
        <route edges="161701303#7.248 gsndj_n6"/>
    </vehicle>
    <vehicle id="gsndj_n7__2__police.9" type="police" depart="163.32" departLane="random">
        <route edges="gsndj_n7 161701303#10"/>
    </vehicle>
    <vehicle id="gsndj_n7__2__police.10" type="police" depart="163.99" departLane="random">
        <route edges="gsndj_n7 161701303#10"/>
    </vehicle>
    <vehicle id="gsndj_n7__2__police.11" type="police" depart="164.08" departLane="random">
        <route edges="gsndj_n7 29257863#5"/>
    </vehicle>
    <vehicle id="161701303#7.248__2__police.6" type="police" depart="164.42" departLane="random">
        <route edges="161701303#7.248 gsndj_s5"/>
    </vehicle>
    <vehicle id="gsndj_n7__2__police.12" type="police" depart="165.08" departLane="random">
        <route edges="gsndj_n7 161701303#10"/>
    </vehicle>
    <vehicle id="29257863#2__2__police.11" type="police" depart="165.09" departLane="random">
        <route edges="29257863#2 29257863#5"/>
    </vehicle>
    <vehicle id="gsndj_n7__2__police.13" type="police" depart="167.20" departLane="random">
        <route edges="gsndj_n7 gsndj_n6"/>
    </vehicle>
    <vehicle id="29257863#2__2__police.12" type="police" depart="169.49" departLane="random">
        <route edges="29257863#2 gsndj_s5"/>
    </vehicle>
    <vehicle id="29257863#2__2__police.13" type="police" depart="173.82" departLane="random">
        <route edges="29257863#2 29257863#5"/>
    </vehicle>
    <vehicle id="29257863#2__2__police.14" type="police" depart="177.22" departLane="random">
        <route edges="29257863#2 gsndj_n6"/>
    </vehicle>
    <vehicle id="gsndj_n7__2__police.14" type="police" depart="178.72" departLane="random">
        <route edges="gsndj_n7 29257863#5"/>
    </vehicle>
</routes>
