<?xml version="1.0" encoding="UTF-8"?>

<!-- generated on 2024-07-21 04:30:28 by Eclipse SUMO jtrrouter Version 1.19.0
<configuration xmlns:xsi="http://www.w3.org/2001/XMLSchema-instance" xsi:noNamespaceSchemaLocation="http://sumo.dlr.de/xsd/jtrrouterConfiguration.xsd">

    <input>
        <net-file value="/home/wmn/TransSimHub/examples/sumo_env/single_junction/./env/single_junction.net.xml"/>
        <route-files value="/home/wmn/TransSimHub/examples/sumo_env/single_junction/./testflow.trip.xml"/>
        <turn-ratio-files value="/home/wmn/TransSimHub/examples/sumo_env/single_junction/./testflow.turndefs.xml"/>
    </input>

    <output>
        <output-file value="/home/wmn/TransSimHub/examples/sumo_env/single_junction/./testflow.rou.xml"/>
    </output>

    <processing>
        <randomize-flows value="True"/>
        <accept-all-destinations value="True"/>
    </processing>

    <defaults>
        <departlane value="random"/>
    </defaults>

    <report>
        <no-warnings value="true"/>
    </report>

    <random_number>
        <seed value="777"/>
    </random_number>

</configuration>
-->

<routes xmlns:xsi="http://www.w3.org/2001/XMLSchema-instance" xsi:noNamespaceSchemaLocation="http://sumo.dlr.de/xsd/routes_file.xsd">
    <vType id="background" length="5.00" probability="0.93" color="155,89,182" tau="1.0"/>
    <vType id="ego" length="5.00" probability="0.07" color="26,188,156" accel="1" decel="1" tau="1.0"/>
    <vehicle id="gsndj_s4__0__background.0" type="background" depart="0.84" departLane="random">
        <route edges="gsndj_s4 gsndj_s5"/>
    </vehicle>
    <vehicle id="gsndj_n7__0__background.0" type="background" depart="3.58" departLane="random">
        <route edges="gsndj_n7 161701303#10"/>
    </vehicle>
    <vehicle id="161701303#7.248__0__background.0" type="background" depart="4.16" departLane="random">
        <route edges="161701303#7.248 161701303#10"/>
    </vehicle>
    <vehicle id="29257863#2__0__background.0" type="background" depart="5.68" departLane="random">
        <route edges="29257863#2 29257863#5"/>
    </vehicle>
    <vehicle id="29257863#2__0__background.1" type="background" depart="6.54" departLane="random">
        <route edges="29257863#2 gsndj_s5"/>
    </vehicle>
    <vehicle id="29257863#2__0__background.2" type="background" depart="6.80" departLane="random">
        <route edges="29257863#2 gsndj_s5"/>
    </vehicle>
    <vehicle id="29257863#2__0__background.3" type="background" depart="7.71" departLane="random">
        <route edges="29257863#2 gsndj_n6"/>
    </vehicle>
    <vehicle id="161701303#7.248__0__background.1" type="background" depart="7.95" departLane="random">
        <route edges="161701303#7.248 161701303#10"/>
    </vehicle>
    <vehicle id="29257863#2__0__background.4" type="background" depart="10.82" departLane="random">
        <route edges="29257863#2 29257863#5"/>
    </vehicle>
    <vehicle id="gsndj_n7__0__background.1" type="background" depart="10.88" departLane="random">
        <route edges="gsndj_n7 gsndj_n6"/>
    </vehicle>
    <vehicle id="gsndj_n7__0__background.2" type="background" depart="11.03" departLane="random">
        <route edges="gsndj_n7 gsndj_n6"/>
    </vehicle>
    <vehicle id="29257863#2__0__background.5" type="background" depart="12.32" departLane="random">
        <route edges="29257863#2 29257863#5"/>
    </vehicle>
    <vehicle id="gsndj_s4__0__background.1" type="background" depart="15.68" departLane="random">
        <route edges="gsndj_s4 161701303#10"/>
    </vehicle>
    <vehicle id="gsndj_n7__0__background.3" type="background" depart="15.93" departLane="random">
        <route edges="gsndj_n7 161701303#10"/>
    </vehicle>
    <vehicle id="gsndj_s4__0__background.2" type="background" depart="16.75" departLane="random">
        <route edges="gsndj_s4 gsndj_s5"/>
    </vehicle>
    <vehicle id="gsndj_n7__0__background.4" type="background" depart="17.37" departLane="random">
        <route edges="gsndj_n7 161701303#10"/>
    </vehicle>
    <vehicle id="29257863#2__0__background.6" type="background" depart="19.28" departLane="random">
        <route edges="29257863#2 29257863#5"/>
    </vehicle>
    <vehicle id="29257863#2__0__background.7" type="background" depart="20.32" departLane="random">
        <route edges="29257863#2 gsndj_s5"/>
    </vehicle>
    <vehicle id="gsndj_s4__0__background.3" type="background" depart="23.35" departLane="random">
        <route edges="gsndj_s4 gsndj_s5"/>
    </vehicle>
    <vehicle id="gsndj_n7__0__background.5" type="background" depart="25.90" departLane="random">
        <route edges="gsndj_n7 gsndj_n6"/>
    </vehicle>
    <vehicle id="gsndj_n7__0__background.6" type="background" depart="26.70" departLane="random">
        <route edges="gsndj_n7 29257863#5"/>
    </vehicle>
    <vehicle id="29257863#2__0__background.8" type="background" depart="26.95" departLane="random">
        <route edges="29257863#2 29257863#5"/>
    </vehicle>
    <vehicle id="161701303#7.248__0__background.2" type="background" depart="28.29" departLane="random">
        <route edges="161701303#7.248 161701303#10"/>
    </vehicle>
    <vehicle id="gsndj_n7__0__background.7" type="background" depart="28.79" departLane="random">
        <route edges="gsndj_n7 161701303#10"/>
    </vehicle>
    <vehicle id="161701303#7.248__0__background.3" type="background" depart="33.66" departLane="random">
        <route edges="161701303#7.248 gsndj_s5"/>
    </vehicle>
    <vehicle id="29257863#2__0__background.9" type="background" depart="35.91" departLane="random">
        <route edges="29257863#2 gsndj_s5"/>
    </vehicle>
    <vehicle id="gsndj_n7__0__background.8" type="background" depart="36.79" departLane="random">
        <route edges="gsndj_n7 gsndj_n6"/>
    </vehicle>
    <vehicle id="gsndj_n7__0__background.9" type="background" depart="40.54" departLane="random">
        <route edges="gsndj_n7 gsndj_n6"/>
    </vehicle>
    <vehicle id="29257863#2__0__ego.0" type="ego" depart="40.85" departLane="random">
        <route edges="29257863#2 gsndj_s5"/>
    </vehicle>
    <vehicle id="29257863#2__0__background.10" type="background" depart="41.30" departLane="random">
        <route edges="29257863#2 gsndj_s5"/>
    </vehicle>
    <vehicle id="gsndj_n7__0__background.10" type="background" depart="44.46" departLane="random">
        <route edges="gsndj_n7 29257863#5"/>
    </vehicle>
    <vehicle id="161701303#7.248__0__background.4" type="background" depart="46.02" departLane="random">
        <route edges="161701303#7.248 gsndj_n6"/>
    </vehicle>
    <vehicle id="gsndj_s4__0__background.4" type="background" depart="46.02" departLane="random">
        <route edges="gsndj_s4 161701303#10"/>
    </vehicle>
    <vehicle id="gsndj_n7__0__ego.0" type="ego" depart="47.92" departLane="random">
        <route edges="gsndj_n7 29257863#5"/>
    </vehicle>
    <vehicle id="29257863#2__0__background.11" type="background" depart="48.23" departLane="random">
        <route edges="29257863#2 29257863#5"/>
    </vehicle>
    <vehicle id="gsndj_s4__0__background.5" type="background" depart="51.52" departLane="random">
        <route edges="gsndj_s4 161701303#10"/>
    </vehicle>
    <vehicle id="gsndj_n7__0__background.11" type="background" depart="52.13" departLane="random">
        <route edges="gsndj_n7 gsndj_n6"/>
    </vehicle>
    <vehicle id="161701303#7.248__0__background.5" type="background" depart="53.45" departLane="random">
        <route edges="161701303#7.248 gsndj_s5"/>
    </vehicle>
    <vehicle id="gsndj_n7__0__background.12" type="background" depart="54.94" departLane="random">
        <route edges="gsndj_n7 161701303#10"/>
    </vehicle>
    <vehicle id="29257863#2__0__background.12" type="background" depart="56.15" departLane="random">
        <route edges="29257863#2 29257863#5"/>
    </vehicle>
    <vehicle id="gsndj_n7__1__background.0" type="background" depart="60.03" departLane="random">
        <route edges="gsndj_n7 gsndj_n6"/>
    </vehicle>
    <vehicle id="29257863#2__1__background.0" type="background" depart="61.54" departLane="random">
        <route edges="29257863#2 gsndj_s5"/>
    </vehicle>
    <vehicle id="161701303#7.248__1__background.0" type="background" depart="61.72" departLane="random">
        <route edges="161701303#7.248 gsndj_s5"/>
    </vehicle>
    <vehicle id="gsndj_s4__1__background.0" type="background" depart="63.43" departLane="random">
        <route edges="gsndj_s4 gsndj_s5"/>
    </vehicle>
    <vehicle id="161701303#7.248__1__background.1" type="background" depart="63.47" departLane="random">
        <route edges="161701303#7.248 161701303#10"/>
    </vehicle>
    <vehicle id="gsndj_n7__1__background.1" type="background" depart="64.54" departLane="random">
        <route edges="gsndj_n7 gsndj_n6"/>
    </vehicle>
    <vehicle id="29257863#2__1__background.1" type="background" depart="69.31" departLane="random">
        <route edges="29257863#2 gsndj_s5"/>
    </vehicle>
    <vehicle id="161701303#7.248__1__background.2" type="background" depart="70.17" departLane="random">
        <route edges="161701303#7.248 161701303#10"/>
    </vehicle>
    <vehicle id="29257863#2__1__background.2" type="background" depart="71.26" departLane="random">
        <route edges="29257863#2 gsndj_n6"/>
    </vehicle>
    <vehicle id="161701303#7.248__1__background.3" type="background" depart="72.29" departLane="random">
        <route edges="161701303#7.248 gsndj_s5"/>
    </vehicle>
    <vehicle id="gsndj_s4__1__background.1" type="background" depart="72.41" departLane="random">
        <route edges="gsndj_s4 gsndj_s5"/>
    </vehicle>
    <vehicle id="gsndj_s4__1__background.2" type="background" depart="73.67" departLane="random">
        <route edges="gsndj_s4 gsndj_s5"/>
    </vehicle>
    <vehicle id="29257863#2__1__background.3" type="background" depart="75.08" departLane="random">
        <route edges="29257863#2 gsndj_s5"/>
    </vehicle>
    <vehicle id="29257863#2__1__background.4" type="background" depart="75.59" departLane="random">
        <route edges="29257863#2 gsndj_s5"/>
    </vehicle>
    <vehicle id="29257863#2__1__background.5" type="background" depart="76.46" departLane="random">
        <route edges="29257863#2 29257863#5"/>
    </vehicle>
    <vehicle id="gsndj_s4__1__background.3" type="background" depart="76.73" departLane="random">
        <route edges="gsndj_s4 161701303#10"/>
    </vehicle>
    <vehicle id="29257863#2__1__background.6" type="background" depart="78.84" departLane="random">
        <route edges="29257863#2 29257863#5"/>
    </vehicle>
    <vehicle id="gsndj_s4__1__background.4" type="background" depart="80.50" departLane="random">
        <route edges="gsndj_s4 gsndj_s5"/>
    </vehicle>
    <vehicle id="gsndj_n7__1__background.2" type="background" depart="85.22" departLane="random">
        <route edges="gsndj_n7 29257863#5"/>
    </vehicle>
    <vehicle id="gsndj_n7__1__background.3" type="background" depart="86.23" departLane="random">
        <route edges="gsndj_n7 gsndj_n6"/>
    </vehicle>
    <vehicle id="gsndj_n7__1__background.4" type="background" depart="86.40" departLane="random">
        <route edges="gsndj_n7 29257863#5"/>
    </vehicle>
    <vehicle id="161701303#7.248__1__background.4" type="background" depart="87.35" departLane="random">
        <route edges="161701303#7.248 161701303#10"/>
    </vehicle>
    <vehicle id="29257863#2__1__background.7" type="background" depart="89.83" departLane="random">
        <route edges="29257863#2 29257863#5"/>
    </vehicle>
    <vehicle id="gsndj_n7__1__background.5" type="background" depart="90.89" departLane="random">
        <route edges="gsndj_n7 gsndj_n6"/>
    </vehicle>
    <vehicle id="gsndj_n7__1__background.6" type="background" depart="91.08" departLane="random">
        <route edges="gsndj_n7 161701303#10"/>
    </vehicle>
    <vehicle id="gsndj_s4__1__background.5" type="background" depart="97.85" departLane="random">
        <route edges="gsndj_s4 29257863#5"/>
    </vehicle>
    <vehicle id="gsndj_n7__1__background.7" type="background" depart="99.15" departLane="random">
        <route edges="gsndj_n7 161701303#10"/>
    </vehicle>
    <vehicle id="29257863#2__1__background.8" type="background" depart="102.87" departLane="random">
        <route edges="29257863#2 gsndj_s5"/>
    </vehicle>
    <vehicle id="gsndj_n7__1__background.8" type="background" depart="103.19" departLane="random">
        <route edges="gsndj_n7 gsndj_n6"/>
    </vehicle>
    <vehicle id="29257863#2__1__background.9" type="background" depart="103.28" departLane="random">
        <route edges="29257863#2 gsndj_s5"/>
    </vehicle>
    <vehicle id="29257863#2__1__background.10" type="background" depart="105.90" departLane="random">
        <route edges="29257863#2 29257863#5"/>
    </vehicle>
    <vehicle id="gsndj_n7__1__background.9" type="background" depart="108.14" departLane="random">
        <route edges="gsndj_n7 161701303#10"/>
    </vehicle>
    <vehicle id="gsndj_n7__1__background.10" type="background" depart="109.14" departLane="random">
        <route edges="gsndj_n7 29257863#5"/>
    </vehicle>
    <vehicle id="161701303#7.248__1__background.5" type="background" depart="110.49" departLane="random">
        <route edges="161701303#7.248 161701303#10"/>
    </vehicle>
    <vehicle id="29257863#2__1__background.11" type="background" depart="111.42" departLane="random">
        <route edges="29257863#2 gsndj_s5"/>
    </vehicle>
    <vehicle id="29257863#2__1__background.12" type="background" depart="113.47" departLane="random">
        <route edges="29257863#2 gsndj_s5"/>
    </vehicle>
    <vehicle id="gsndj_n7__1__background.11" type="background" depart="117.89" departLane="random">
        <route edges="gsndj_n7 gsndj_n6"/>
    </vehicle>
    <vehicle id="gsndj_n7__1__background.12" type="background" depart="119.78" departLane="random">
        <route edges="gsndj_n7 gsndj_n6"/>
    </vehicle>
    <vehicle id="gsndj_n7__2__background.0" type="background" depart="120.09" departLane="random">
        <route edges="gsndj_n7 29257863#5"/>
    </vehicle>
    <vehicle id="gsndj_n7__2__background.1" type="background" depart="120.19" departLane="random">
        <route edges="gsndj_n7 gsndj_n6"/>
    </vehicle>
    <vehicle id="gsndj_s4__2__background.0" type="background" depart="128.46" departLane="random">
        <route edges="gsndj_s4 gsndj_s5"/>
    </vehicle>
    <vehicle id="161701303#7.248__2__background.0" type="background" depart="128.53" departLane="random">
        <route edges="161701303#7.248 161701303#10"/>
    </vehicle>
    <vehicle id="gsndj_n7__2__background.2" type="background" depart="134.01" departLane="random">
        <route edges="gsndj_n7 29257863#5"/>
    </vehicle>
    <vehicle id="161701303#7.248__2__background.1" type="background" depart="134.15" departLane="random">
        <route edges="161701303#7.248 gsndj_n6"/>
    </vehicle>
    <vehicle id="29257863#2__2__background.0" type="background" depart="134.36" departLane="random">
        <route edges="29257863#2 29257863#5"/>
    </vehicle>
    <vehicle id="29257863#2__2__background.1" type="background" depart="136.26" departLane="random">
        <route edges="29257863#2 29257863#5"/>
    </vehicle>
    <vehicle id="161701303#7.248__2__background.2" type="background" depart="139.56" departLane="random">
        <route edges="161701303#7.248 gsndj_n6"/>
    </vehicle>
    <vehicle id="gsndj_n7__2__background.3" type="background" depart="143.16" departLane="random">
        <route edges="gsndj_n7 gsndj_n6"/>
    </vehicle>
    <vehicle id="29257863#2__2__background.2" type="background" depart="144.69" departLane="random">
        <route edges="29257863#2 gsndj_s5"/>
    </vehicle>
    <vehicle id="gsndj_n7__2__background.4" type="background" depart="145.80" departLane="random">
        <route edges="gsndj_n7 29257863#5"/>
    </vehicle>
    <vehicle id="gsndj_n7__2__background.5" type="background" depart="145.86" departLane="random">
        <route edges="gsndj_n7 gsndj_n6"/>
    </vehicle>
    <vehicle id="gsndj_s4__2__background.1" type="background" depart="148.54" departLane="random">
        <route edges="gsndj_s4 29257863#5"/>
    </vehicle>
    <vehicle id="gsndj_s4__2__background.2" type="background" depart="150.51" departLane="random">
        <route edges="gsndj_s4 29257863#5"/>
    </vehicle>
    <vehicle id="161701303#7.248__2__background.3" type="background" depart="151.76" departLane="random">
        <route edges="161701303#7.248 gsndj_n6"/>
    </vehicle>
    <vehicle id="gsndj_n7__2__background.6" type="background" depart="151.85" departLane="random">
        <route edges="gsndj_n7 gsndj_n6"/>
    </vehicle>
    <vehicle id="gsndj_s4__2__background.3" type="background" depart="151.94" departLane="random">
        <route edges="gsndj_s4 29257863#5"/>
    </vehicle>
    <vehicle id="161701303#7.248__2__background.4" type="background" depart="152.29" departLane="random">
        <route edges="161701303#7.248 gsndj_n6"/>
    </vehicle>
    <vehicle id="gsndj_n7__2__background.7" type="background" depart="155.70" departLane="random">
        <route edges="gsndj_n7 161701303#10"/>
    </vehicle>
    <vehicle id="29257863#2__2__background.3" type="background" depart="157.85" departLane="random">
        <route edges="29257863#2 gsndj_s5"/>
    </vehicle>
    <vehicle id="gsndj_n7__2__background.8" type="background" depart="159.52" departLane="random">
        <route edges="gsndj_n7 gsndj_n6"/>
    </vehicle>
    <vehicle id="29257863#2__2__background.4" type="background" depart="159.82" departLane="random">
        <route edges="29257863#2 gsndj_s5"/>
    </vehicle>
    <vehicle id="29257863#2__2__background.5" type="background" depart="162.11" departLane="random">
        <route edges="29257863#2 gsndj_n6"/>
    </vehicle>
    <vehicle id="29257863#2__2__background.6" type="background" depart="162.53" departLane="random">
        <route edges="29257863#2 gsndj_s5"/>
    </vehicle>
    <vehicle id="29257863#2__2__background.7" type="background" depart="163.32" departLane="random">
        <route edges="29257863#2 gsndj_n6"/>
    </vehicle>
    <vehicle id="29257863#2__2__background.8" type="background" depart="163.99" departLane="random">
        <route edges="29257863#2 gsndj_n6"/>
    </vehicle>
    <vehicle id="29257863#2__2__background.9" type="background" depart="164.08" departLane="random">
        <route edges="29257863#2 gsndj_s5"/>
    </vehicle>
    <vehicle id="gsndj_n7__2__ego.0" type="ego" depart="164.98" departLane="random">
        <route edges="gsndj_n7 gsndj_n6"/>
    </vehicle>
    <vehicle id="29257863#2__2__background.10" type="background" depart="165.08" departLane="random">
        <route edges="29257863#2 29257863#5"/>
    </vehicle>
    <vehicle id="gsndj_s4__2__background.4" type="background" depart="165.09" departLane="random">
        <route edges="gsndj_s4 161701303#10"/>
    </vehicle>
    <vehicle id="29257863#2__2__background.11" type="background" depart="167.20" departLane="random">
        <route edges="29257863#2 29257863#5"/>
    </vehicle>
    <vehicle id="gsndj_n7__2__background.9" type="background" depart="167.92" departLane="random">
        <route edges="gsndj_n7 gsndj_n6"/>
    </vehicle>
    <vehicle id="161701303#7.248__2__background.5" type="background" depart="169.49" departLane="random">
        <route edges="161701303#7.248 gsndj_n6"/>
    </vehicle>
    <vehicle id="gsndj_n7__2__background.10" type="background" depart="170.44" departLane="random">
        <route edges="gsndj_n7 gsndj_n6"/>
    </vehicle>
    <vehicle id="gsndj_n7__2__background.11" type="background" depart="172.24" departLane="random">
        <route edges="gsndj_n7 161701303#10"/>
    </vehicle>
    <vehicle id="29257863#2__2__background.12" type="background" depart="173.82" departLane="random">
        <route edges="29257863#2 gsndj_s5"/>
    </vehicle>
    <vehicle id="gsndj_s4__2__background.5" type="background" depart="177.22" departLane="random">
        <route edges="gsndj_s4 gsndj_s5"/>
    </vehicle>
    <vehicle id="gsndj_n7__2__background.12" type="background" depart="178.72" departLane="random">
        <route edges="gsndj_n7 gsndj_n6"/>
    </vehicle>
</routes>
