<?xml version="1.0" encoding="UTF-8"?>

<!-- generated on 2025-07-17 15:32:46 by Eclipse SUMO jtrrouter Version 1.23.1
<jtrrouterConfiguration xmlns:xsi="http://www.w3.org/2001/XMLSchema-instance" xsi:noNamespaceSchemaLocation="http://sumo.dlr.de/xsd/jtrrouterConfiguration.xsd">

    <input>
        <net-file value="/home/tshub/Code_Project/2_Traffic/TrafficAlpha/VLM-TSC/exp_networks/Beijing_Beishahe/./networks/normal.net.xml"/>
        <route-files value="/home/tshub/Code_Project/2_Traffic/TrafficAlpha/VLM-TSC/exp_networks/Beijing_Beishahe/./testflow.trip.xml"/>
        <turn-ratio-files value="/home/tshub/Code_Project/2_Traffic/TrafficAlpha/VLM-TSC/exp_networks/Beijing_Beishahe/./testflow.turndefs.xml"/>
    </input>

    <output>
        <output-file value="/home/tshub/Code_Project/2_Traffic/TrafficAlpha/VLM-TSC/exp_networks/Beijing_Beishahe/./routes/random_perturbation.rou.xml"/>
    </output>

    <processing>
        <randomize-flows value="True"/>
        <accept-all-destinations value="True"/>
    </processing>

    <defaults>
        <departlane value="random"/>
    </defaults>

    <report>
        <no-warnings value="true"/>
    </report>

    <random_number>
        <seed value="777"/>
    </random_number>

</jtrrouterConfiguration>
-->

<routes xmlns:xsi="http://www.w3.org/2001/XMLSchema-instance" xsi:noNamespaceSchemaLocation="http://sumo.dlr.de/xsd/routes_file.xsd">
    <vType id="background" length="5.00" color="220,220,220" tau="1.0"/>
    <vType id="police" length="5.00" color="blue" tau="1.0"/>
    <vType id="emergency" length="6.50" color="255,165,0" tau="1.0"/>
    <vType id="fire_engine" length="7.1" color="255,165,0" tau="1.0"/>
    <vType id="safety_barriers" length="1" color="0,0,0"/>
    <vehicle id="657921289.337__0__background.0" type="background" depart="0.84" departLane="random">
        <route edges="657921289.337 741602122"/>
    </vehicle>
    <vehicle id="741602130.216__0__background.0" type="background" depart="3.58" departLane="random">
        <route edges="741602130.216 741602121"/>
    </vehicle>
    <vehicle id="657921284.293__0__background.0" type="background" depart="4.16" departLane="random">
        <route edges="657921284.293 741602121"/>
    </vehicle>
    <vehicle id="657921289.337__0__background.1" type="background" depart="5.68" departLane="random">
        <route edges="657921289.337 741602122"/>
    </vehicle>
    <vehicle id="657921284.293__0__background.1" type="background" depart="5.99" departLane="random">
        <route edges="657921284.293 741602121"/>
    </vehicle>
    <vehicle id="657921289.337__0__background.2" type="background" depart="6.54" departLane="random">
        <route edges="657921289.337 741602122"/>
    </vehicle>
    <vehicle id="657921289.337__0__background.3" type="background" depart="6.80" departLane="random">
        <route edges="657921289.337 657921286#1"/>
    </vehicle>
    <vehicle id="657921289.337__0__background.4" type="background" depart="7.71" departLane="random">
        <route edges="657921289.337 741602122"/>
    </vehicle>
    <vehicle id="657921284.293__0__background.2" type="background" depart="7.95" departLane="random">
        <route edges="657921284.293 741602121"/>
    </vehicle>
    <vehicle id="657921289.337__0__background.5" type="background" depart="10.82" departLane="random">
        <route edges="657921289.337 657921286#1"/>
    </vehicle>
    <vehicle id="741602130.216__0__background.1" type="background" depart="10.88" departLane="random">
        <route edges="741602130.216 741602121"/>
    </vehicle>
    <vehicle id="741602130.216__0__background.2" type="background" depart="11.03" departLane="random">
        <route edges="741602130.216 741602121"/>
    </vehicle>
    <vehicle id="657921289.337__0__background.6" type="background" depart="12.32" departLane="random">
        <route edges="657921289.337 657921286#1"/>
    </vehicle>
    <vehicle id="657921289.337__0__background.7" type="background" depart="15.68" departLane="random">
        <route edges="657921289.337 657921286#1"/>
    </vehicle>
    <vehicle id="741602130.216__0__background.3" type="background" depart="15.93" departLane="random">
        <route edges="741602130.216 741602121"/>
    </vehicle>
    <vehicle id="657921289.337__0__background.8" type="background" depart="16.75" departLane="random">
        <route edges="657921289.337 741602122"/>
    </vehicle>
    <vehicle id="741602130.216__0__background.4" type="background" depart="17.37" departLane="random">
        <route edges="741602130.216 741602121"/>
    </vehicle>
    <vehicle id="657921289.337__0__background.9" type="background" depart="19.28" departLane="random">
        <route edges="657921289.337 741602122"/>
    </vehicle>
    <vehicle id="657921289.337__0__background.10" type="background" depart="20.32" departLane="random">
        <route edges="657921289.337 657921286#1"/>
    </vehicle>
    <vehicle id="657921289.337__0__background.11" type="background" depart="23.35" departLane="random">
        <route edges="657921289.337 741602122"/>
    </vehicle>
    <vehicle id="657921284.293__0__background.3" type="background" depart="25.22" departLane="random">
        <route edges="657921284.293 741602121"/>
    </vehicle>
    <vehicle id="741602130.216__0__background.5" type="background" depart="25.90" departLane="random">
        <route edges="741602130.216 741602121"/>
    </vehicle>
    <vehicle id="741602130.216__0__background.6" type="background" depart="26.70" departLane="random">
        <route edges="741602130.216 657921286#1"/>
    </vehicle>
    <vehicle id="657921289.337__0__background.12" type="background" depart="26.95" departLane="random">
        <route edges="657921289.337 741602122"/>
    </vehicle>
    <vehicle id="657921284.293__0__background.4" type="background" depart="28.29" departLane="random">
        <route edges="657921284.293 741602122"/>
    </vehicle>
    <vehicle id="741602130.216__0__background.7" type="background" depart="28.79" departLane="random">
        <route edges="741602130.216 741602121"/>
    </vehicle>
    <vehicle id="657921284.293__0__background.5" type="background" depart="31.08" departLane="random">
        <route edges="657921284.293 741602122"/>
    </vehicle>
    <vehicle id="657921284.293__0__background.6" type="background" depart="33.66" departLane="random">
        <route edges="657921284.293 741602122"/>
    </vehicle>
    <vehicle id="657921289.337__0__background.13" type="background" depart="35.91" departLane="random">
        <route edges="657921289.337 741602122"/>
    </vehicle>
    <vehicle id="741602130.216__0__background.8" type="background" depart="36.79" departLane="random">
        <route edges="741602130.216 657921286#1"/>
    </vehicle>
    <vehicle id="741602130.216__0__background.9" type="background" depart="40.54" departLane="random">
        <route edges="741602130.216 657921286#1"/>
    </vehicle>
    <vehicle id="741602130.216__0__background.10" type="background" depart="40.85" departLane="random">
        <route edges="741602130.216 741602121"/>
    </vehicle>
    <vehicle id="657921289.337__0__background.14" type="background" depart="41.30" departLane="random">
        <route edges="657921289.337 741602122"/>
    </vehicle>
    <vehicle id="657921284.293__0__background.7" type="background" depart="43.19" departLane="random">
        <route edges="657921284.293 741602121"/>
    </vehicle>
    <vehicle id="741602130.216__0__background.11" type="background" depart="44.46" departLane="random">
        <route edges="741602130.216 741602121"/>
    </vehicle>
    <vehicle id="657921284.293__0__background.8" type="background" depart="46.02" departLane="random">
        <route edges="657921284.293 741602121"/>
    </vehicle>
    <vehicle id="657921289.337__0__background.15" type="background" depart="46.02" departLane="random">
        <route edges="657921289.337 657921286#1"/>
    </vehicle>
    <vehicle id="741602130.216__0__background.12" type="background" depart="47.92" departLane="random">
        <route edges="741602130.216 657921286#1"/>
    </vehicle>
    <vehicle id="657921284.293__0__background.9" type="background" depart="48.14" departLane="random">
        <route edges="657921284.293 741602122"/>
    </vehicle>
    <vehicle id="657921289.337__0__background.16" type="background" depart="48.23" departLane="random">
        <route edges="657921289.337 657921286#1"/>
    </vehicle>
    <vehicle id="657921284.293__0__background.10" type="background" depart="51.52" departLane="random">
        <route edges="657921284.293 741602121"/>
    </vehicle>
    <vehicle id="741602130.216__0__background.13" type="background" depart="52.13" departLane="random">
        <route edges="741602130.216 657921286#1"/>
    </vehicle>
    <vehicle id="657921284.293__0__background.11" type="background" depart="53.45" departLane="random">
        <route edges="657921284.293 741602122"/>
    </vehicle>
    <vehicle id="741602130.216__0__background.14" type="background" depart="54.94" departLane="random">
        <route edges="741602130.216 741602121"/>
    </vehicle>
    <vehicle id="657921289.337__0__background.17" type="background" depart="56.15" departLane="random">
        <route edges="657921289.337 741602122"/>
    </vehicle>
    <vehicle id="741602130.216__1__background.0" type="background" depart="60.03" departLane="random">
        <route edges="741602130.216 741602121"/>
    </vehicle>
    <vehicle id="657921284.293__1__background.0" type="background" depart="60.09" departLane="random">
        <route edges="657921284.293 741602121"/>
    </vehicle>
    <vehicle id="657921289.337__1__background.0" type="background" depart="61.54" departLane="random">
        <route edges="657921289.337 741602122"/>
    </vehicle>
    <vehicle id="657921284.293__1__background.1" type="background" depart="61.72" departLane="random">
        <route edges="657921284.293 741602121"/>
    </vehicle>
    <vehicle id="657921289.337__1__background.1" type="background" depart="63.43" departLane="random">
        <route edges="657921289.337 741602122"/>
    </vehicle>
    <vehicle id="657921289.337__1__background.2" type="background" depart="63.47" departLane="random">
        <route edges="657921289.337 741602122"/>
    </vehicle>
    <vehicle id="741602130.216__1__background.1" type="background" depart="64.54" departLane="random">
        <route edges="741602130.216 741602121"/>
    </vehicle>
    <vehicle id="741602130.216__1__background.2" type="background" depart="69.31" departLane="random">
        <route edges="741602130.216 741602121"/>
    </vehicle>
    <vehicle id="657921289.337__1__background.3" type="background" depart="70.17" departLane="random">
        <route edges="657921289.337 741602122"/>
    </vehicle>
    <vehicle id="741602130.216__1__background.3" type="background" depart="71.26" departLane="random">
        <route edges="741602130.216 741602121"/>
    </vehicle>
    <vehicle id="657921289.337__1__background.4" type="background" depart="72.29" departLane="random">
        <route edges="657921289.337 741602122"/>
    </vehicle>
    <vehicle id="657921289.337__1__background.5" type="background" depart="72.41" departLane="random">
        <route edges="657921289.337 741602122"/>
    </vehicle>
    <vehicle id="657921289.337__1__background.6" type="background" depart="73.67" departLane="random">
        <route edges="657921289.337 741602122"/>
    </vehicle>
    <vehicle id="657921284.293__1__background.2" type="background" depart="74.01" departLane="random">
        <route edges="657921284.293 741602121"/>
    </vehicle>
    <vehicle id="741602130.216__1__background.4" type="background" depart="75.08" departLane="random">
        <route edges="741602130.216 741602121"/>
    </vehicle>
    <vehicle id="657921289.337__1__background.7" type="background" depart="75.59" departLane="random">
        <route edges="657921289.337 741602122"/>
    </vehicle>
    <vehicle id="657921289.337__1__background.8" type="background" depart="76.46" departLane="random">
        <route edges="657921289.337 657921286#1"/>
    </vehicle>
    <vehicle id="657921289.337__1__background.9" type="background" depart="76.73" departLane="random">
        <route edges="657921289.337 741602122"/>
    </vehicle>
    <vehicle id="657921289.337__1__background.10" type="background" depart="78.84" departLane="random">
        <route edges="657921289.337 741602122"/>
    </vehicle>
    <vehicle id="657921289.337__1__background.11" type="background" depart="80.50" departLane="random">
        <route edges="657921289.337 741602122"/>
    </vehicle>
    <vehicle id="657921284.293__1__background.3" type="background" depart="83.16" departLane="random">
        <route edges="657921284.293 741602122"/>
    </vehicle>
    <vehicle id="657921284.293__1__background.4" type="background" depart="85.86" departLane="random">
        <route edges="657921284.293 741602121"/>
    </vehicle>
    <vehicle id="741602130.216__1__background.5" type="background" depart="86.23" departLane="random">
        <route edges="741602130.216 741602121"/>
    </vehicle>
    <vehicle id="741602130.216__1__background.6" type="background" depart="86.40" departLane="random">
        <route edges="741602130.216 741602121"/>
    </vehicle>
    <vehicle id="657921284.293__1__background.5" type="background" depart="87.35" departLane="random">
        <route edges="657921284.293 741602121"/>
    </vehicle>
    <vehicle id="657921289.337__1__background.12" type="background" depart="89.83" departLane="random">
        <route edges="657921289.337 741602122"/>
    </vehicle>
    <vehicle id="741602130.216__1__background.7" type="background" depart="90.89" departLane="random">
        <route edges="741602130.216 741602121"/>
    </vehicle>
    <vehicle id="657921284.293__1__background.6" type="background" depart="91.85" departLane="random">
        <route edges="657921284.293 741602121"/>
    </vehicle>
    <vehicle id="657921284.293__1__background.7" type="background" depart="95.70" departLane="random">
        <route edges="657921284.293 741602121"/>
    </vehicle>
    <vehicle id="657921289.337__1__background.13" type="background" depart="97.85" departLane="random">
        <route edges="657921289.337 657921286#1"/>
    </vehicle>
    <vehicle id="741602130.216__1__background.8" type="background" depart="99.15" departLane="random">
        <route edges="741602130.216 741602121"/>
    </vehicle>
    <vehicle id="657921289.337__1__background.14" type="background" depart="102.87" departLane="random">
        <route edges="657921289.337 741602122"/>
    </vehicle>
    <vehicle id="657921289.337__1__background.15" type="background" depart="103.28" departLane="random">
        <route edges="657921289.337 741602122"/>
    </vehicle>
    <vehicle id="657921284.293__1__background.8" type="background" depart="104.98" departLane="random">
        <route edges="657921284.293 741602121"/>
    </vehicle>
    <vehicle id="657921289.337__1__background.16" type="background" depart="105.90" departLane="random">
        <route edges="657921289.337 741602122"/>
    </vehicle>
    <vehicle id="657921284.293__1__background.9" type="background" depart="107.92" departLane="random">
        <route edges="657921284.293 741602121"/>
    </vehicle>
    <vehicle id="741602130.216__1__background.9" type="background" depart="109.14" departLane="random">
        <route edges="741602130.216 657921286#1"/>
    </vehicle>
    <vehicle id="657921284.293__1__background.10" type="background" depart="110.44" departLane="random">
        <route edges="657921284.293 741602122"/>
    </vehicle>
    <vehicle id="657921289.337__1__background.17" type="background" depart="110.49" departLane="random">
        <route edges="657921289.337 657921286#1"/>
    </vehicle>
    <vehicle id="741602130.216__1__background.10" type="background" depart="111.42" departLane="random">
        <route edges="741602130.216 741602121"/>
    </vehicle>
    <vehicle id="657921284.293__1__background.11" type="background" depart="112.24" departLane="random">
        <route edges="657921284.293 741602122"/>
    </vehicle>
    <vehicle id="741602130.216__1__background.11" type="background" depart="113.47" departLane="random">
        <route edges="741602130.216 741602121"/>
    </vehicle>
    <vehicle id="741602130.216__1__background.12" type="background" depart="114.52" departLane="random">
        <route edges="741602130.216 741602121"/>
    </vehicle>
    <vehicle id="741602130.216__1__background.13" type="background" depart="117.89" departLane="random">
        <route edges="741602130.216 741602121"/>
    </vehicle>
    <vehicle id="741602130.216__1__background.14" type="background" depart="119.78" departLane="random">
        <route edges="741602130.216 741602121"/>
    </vehicle>
    <vehicle id="741602130.216__2__background.0" type="background" depart="120.19" departLane="random">
        <route edges="741602130.216 657921286#1"/>
    </vehicle>
    <vehicle id="657921289.337__2__background.0" type="background" depart="124.84" departLane="random">
        <route edges="657921289.337 741602122"/>
    </vehicle>
    <vehicle id="657921284.293__2__background.0" type="background" depart="136.26" departLane="random">
        <route edges="657921284.293 741602122"/>
    </vehicle>
    <vehicle id="657921284.293__2__background.1" type="background" depart="144.69" departLane="random">
        <route edges="657921284.293 741602121"/>
    </vehicle>
    <vehicle id="657921289.337__2__background.1" type="background" depart="145.80" departLane="random">
        <route edges="657921289.337 741602122"/>
    </vehicle>
    <vehicle id="741602130.216__2__background.1" type="background" depart="159.52" departLane="random">
        <route edges="741602130.216 741602121"/>
    </vehicle>
    <vehicle id="657921284.293__2__background.2" type="background" depart="159.82" departLane="random">
        <route edges="657921284.293 741602122"/>
    </vehicle>
    <vehicle id="657921284.293__2__background.3" type="background" depart="162.11" departLane="random">
        <route edges="657921284.293 741602121"/>
    </vehicle>
    <vehicle id="657921284.293__2__background.4" type="background" depart="162.53" departLane="random">
        <route edges="657921284.293 741602121"/>
    </vehicle>
    <vehicle id="657921284.293__2__background.5" type="background" depart="163.32" departLane="random">
        <route edges="657921284.293 741602121"/>
    </vehicle>
    <vehicle id="657921284.293__2__background.6" type="background" depart="163.99" departLane="random">
        <route edges="657921284.293 741602122"/>
    </vehicle>
    <vehicle id="657921284.293__2__background.7" type="background" depart="164.08" departLane="random">
        <route edges="657921284.293 741602122"/>
    </vehicle>
    <vehicle id="657921284.293__2__background.8" type="background" depart="165.08" departLane="random">
        <route edges="657921284.293 741602121"/>
    </vehicle>
    <vehicle id="657921284.293__2__background.9" type="background" depart="167.20" departLane="random">
        <route edges="657921284.293 741602121"/>
    </vehicle>
    <vehicle id="741602130.216__2__background.2" type="background" depart="178.72" departLane="random">
        <route edges="741602130.216 657921286#1"/>
    </vehicle>
    <vehicle id="657921284.293__3__background.0" type="background" depart="188.46" departLane="random">
        <route edges="657921284.293 741602121"/>
    </vehicle>
    <vehicle id="657921284.293__3__background.1" type="background" depart="188.53" departLane="random">
        <route edges="657921284.293 741602122"/>
    </vehicle>
    <vehicle id="657921284.293__3__background.2" type="background" depart="194.15" departLane="random">
        <route edges="657921284.293 741602121"/>
    </vehicle>
    <vehicle id="741602130.216__3__background.0" type="background" depart="194.36" departLane="random">
        <route edges="741602130.216 657921286#1"/>
    </vehicle>
    <vehicle id="657921284.293__3__background.3" type="background" depart="199.56" departLane="random">
        <route edges="657921284.293 741602122"/>
    </vehicle>
    <vehicle id="657921284.293__3__background.4" type="background" depart="208.54" departLane="random">
        <route edges="657921284.293 741602122"/>
    </vehicle>
    <vehicle id="657921289.337__3__background.0" type="background" depart="210.51" departLane="random">
        <route edges="657921289.337 657921286#1"/>
    </vehicle>
    <vehicle id="657921284.293__3__background.5" type="background" depart="211.76" departLane="random">
        <route edges="657921284.293 741602121"/>
    </vehicle>
    <vehicle id="657921284.293__3__background.6" type="background" depart="211.94" departLane="random">
        <route edges="657921284.293 741602121"/>
    </vehicle>
    <vehicle id="657921284.293__3__background.7" type="background" depart="212.29" departLane="random">
        <route edges="657921284.293 741602121"/>
    </vehicle>
    <vehicle id="741602130.216__3__background.1" type="background" depart="217.85" departLane="random">
        <route edges="741602130.216 741602121"/>
    </vehicle>
    <vehicle id="657921289.337__3__background.1" type="background" depart="225.09" departLane="random">
        <route edges="657921289.337 741602122"/>
    </vehicle>
    <vehicle id="657921284.293__3__background.8" type="background" depart="229.49" departLane="random">
        <route edges="657921284.293 741602121"/>
    </vehicle>
    <vehicle id="741602130.216__3__background.2" type="background" depart="233.82" departLane="random">
        <route edges="741602130.216 657921286#1"/>
    </vehicle>
    <vehicle id="657921284.293__3__background.9" type="background" depart="237.22" departLane="random">
        <route edges="657921284.293 741602121"/>
    </vehicle>
    <vehicle id="741602130.216__4__background.0" type="background" depart="240.02" departLane="random">
        <route edges="741602130.216 657921286#1"/>
    </vehicle>
    <vehicle id="741602130.216__4__background.1" type="background" depart="240.29" departLane="random">
        <route edges="741602130.216 741602121"/>
    </vehicle>
    <vehicle id="741602130.216__4__background.2" type="background" depart="241.48" departLane="random">
        <route edges="741602130.216 657921286#1"/>
    </vehicle>
    <vehicle id="741602130.216__4__background.3" type="background" depart="242.31" departLane="random">
        <route edges="741602130.216 741602121"/>
    </vehicle>
    <vehicle id="657921289.337__4__background.0" type="background" depart="242.73" departLane="random">
        <route edges="657921289.337 657921286#1"/>
    </vehicle>
    <vehicle id="657921289.337__4__background.1" type="background" depart="244.98" departLane="random">
        <route edges="657921289.337 741602122"/>
    </vehicle>
    <vehicle id="657921289.337__4__background.2" type="background" depart="245.02" departLane="random">
        <route edges="657921289.337 657921286#1"/>
    </vehicle>
    <vehicle id="741602130.216__4__background.4" type="background" depart="249.59" departLane="random">
        <route edges="741602130.216 741602121"/>
    </vehicle>
    <vehicle id="657921289.337__4__background.3" type="background" depart="250.24" departLane="random">
        <route edges="657921289.337 741602122"/>
    </vehicle>
    <vehicle id="657921289.337__4__background.4" type="background" depart="253.90" departLane="random">
        <route edges="657921289.337 741602122"/>
    </vehicle>
    <vehicle id="741602130.216__4__background.5" type="background" depart="256.61" departLane="random">
        <route edges="741602130.216 741602121"/>
    </vehicle>
    <vehicle id="657921289.337__4__background.5" type="background" depart="257.80" departLane="random">
        <route edges="657921289.337 657921286#1"/>
    </vehicle>
    <vehicle id="741602130.216__4__background.6" type="background" depart="257.86" departLane="random">
        <route edges="741602130.216 657921286#1"/>
    </vehicle>
    <vehicle id="657921289.337__4__background.6" type="background" depart="257.94" departLane="random">
        <route edges="657921289.337 741602122"/>
    </vehicle>
    <vehicle id="741602130.216__4__background.7" type="background" depart="259.11" departLane="random">
        <route edges="741602130.216 741602121"/>
    </vehicle>
    <vehicle id="741602130.216__4__background.8" type="background" depart="259.40" departLane="random">
        <route edges="741602130.216 741602121"/>
    </vehicle>
    <vehicle id="657921289.337__4__background.7" type="background" depart="263.17" departLane="random">
        <route edges="657921289.337 741602122"/>
    </vehicle>
    <vehicle id="741602130.216__4__background.9" type="background" depart="263.38" departLane="random">
        <route edges="741602130.216 741602121"/>
    </vehicle>
    <vehicle id="741602130.216__4__background.10" type="background" depart="264.00" departLane="random">
        <route edges="741602130.216 657921286#1"/>
    </vehicle>
    <vehicle id="657921289.337__4__background.8" type="background" depart="264.06" departLane="random">
        <route edges="657921289.337 657921286#1"/>
    </vehicle>
    <vehicle id="657921284.293__4__background.0" type="background" depart="264.16" departLane="random">
        <route edges="657921284.293 741602121"/>
    </vehicle>
    <vehicle id="741602130.216__4__background.11" type="background" depart="265.38" departLane="random">
        <route edges="741602130.216 657921286#1"/>
    </vehicle>
    <vehicle id="741602130.216__4__background.12" type="background" depart="265.85" departLane="random">
        <route edges="741602130.216 657921286#1"/>
    </vehicle>
    <vehicle id="657921289.337__4__background.9" type="background" depart="266.84" departLane="random">
        <route edges="657921289.337 741602122"/>
    </vehicle>
    <vehicle id="657921289.337__4__background.10" type="background" depart="267.25" departLane="random">
        <route edges="657921289.337 741602122"/>
    </vehicle>
    <vehicle id="741602130.216__4__background.13" type="background" depart="270.15" departLane="random">
        <route edges="741602130.216 657921286#1"/>
    </vehicle>
    <vehicle id="657921284.293__4__background.1" type="background" depart="270.66" departLane="random">
        <route edges="657921284.293 741602121"/>
    </vehicle>
    <vehicle id="657921289.337__4__background.11" type="background" depart="271.07" departLane="random">
        <route edges="657921289.337 657921286#1"/>
    </vehicle>
    <vehicle id="741602130.216__4__background.14" type="background" depart="271.41" departLane="random">
        <route edges="741602130.216 741602121"/>
    </vehicle>
    <vehicle id="657921289.337__4__background.12" type="background" depart="272.07" departLane="random">
        <route edges="657921289.337 657921286#1"/>
    </vehicle>
    <vehicle id="657921289.337__4__background.13" type="background" depart="272.14" departLane="random">
        <route edges="657921289.337 657921286#1"/>
    </vehicle>
    <vehicle id="657921284.293__4__background.2" type="background" depart="272.73" departLane="random">
        <route edges="657921284.293 741602122"/>
    </vehicle>
    <vehicle id="741602130.216__4__background.15" type="background" depart="273.35" departLane="random">
        <route edges="741602130.216 657921286#1"/>
    </vehicle>
    <vehicle id="657921289.337__4__background.14" type="background" depart="273.36" departLane="random">
        <route edges="657921289.337 741602122"/>
    </vehicle>
    <vehicle id="741602130.216__4__background.16" type="background" depart="273.66" departLane="random">
        <route edges="741602130.216 741602121"/>
    </vehicle>
    <vehicle id="657921289.337__4__background.15" type="background" depart="273.90" departLane="random">
        <route edges="657921289.337 657921286#1"/>
    </vehicle>
    <vehicle id="741602130.216__4__background.17" type="background" depart="274.35" departLane="random">
        <route edges="741602130.216 741602121"/>
    </vehicle>
    <vehicle id="741602130.216__4__background.18" type="background" depart="275.15" departLane="random">
        <route edges="741602130.216 741602121"/>
    </vehicle>
    <vehicle id="657921289.337__4__background.16" type="background" depart="275.18" departLane="random">
        <route edges="657921289.337 741602122"/>
    </vehicle>
    <vehicle id="657921289.337__4__background.17" type="background" depart="276.83" departLane="random">
        <route edges="657921289.337 741602122"/>
    </vehicle>
    <vehicle id="657921284.293__4__background.3" type="background" depart="277.89" departLane="random">
        <route edges="657921284.293 741602122"/>
    </vehicle>
    <vehicle id="657921289.337__4__background.18" type="background" depart="279.12" departLane="random">
        <route edges="657921289.337 741602122"/>
    </vehicle>
    <vehicle id="657921289.337__4__background.19" type="background" depart="279.24" departLane="random">
        <route edges="657921289.337 741602122"/>
    </vehicle>
    <vehicle id="657921289.337__4__background.20" type="background" depart="281.94" departLane="random">
        <route edges="657921289.337 741602122"/>
    </vehicle>
    <vehicle id="741602130.216__4__background.19" type="background" depart="282.62" departLane="random">
        <route edges="741602130.216 657921286#1"/>
    </vehicle>
    <vehicle id="741602130.216__4__background.20" type="background" depart="283.50" departLane="random">
        <route edges="741602130.216 657921286#1"/>
    </vehicle>
    <vehicle id="741602130.216__4__background.21" type="background" depart="284.42" departLane="random">
        <route edges="741602130.216 741602121"/>
    </vehicle>
    <vehicle id="657921289.337__4__background.21" type="background" depart="286.58" departLane="random">
        <route edges="657921289.337 741602122"/>